/*--------------------------------*- C++ -*----------------------------------*\
| =========                 |                                                 |
| \\      /  F ield         | OpenFOAM: The Open Source CFD Toolbox           |
|  \\    /   O peration     | Version:  4.1                                   |
|   \\  /    A nd           | Web:      www.OpenFOAM.org                      |
|    \\/     M anipulation  |                                                 |
\*---------------------------------------------------------------------------*/
FoamFile
{
    version     2.0;
    format      ascii;
    class       dictionary;
    object      changeDictionaryDict;
}
// * * * * * * * * * * * * * * * * * * * * * * * * * * * * * * * * * * * * * //


boundary
{
	frontback
	{
		type            empty;
		physicalType    empty;			
	}
	car
	{
		type            wall;
		physicalType    wall;	
	}
	topbottom
	{
		type            wall;
		physicalType    wall;	
	}
	outlet
	{
		type            patch;
		physicalType    patch;
	}
	inlet
	{
		type            patch;
		physicalType    patch;
	}
}


// ************************************************************************* //
