/*--------------------------------*- C++ -*----------------------------------*\
| =========                 |                                                 |
| \\      /  F ield         | OpenFOAM: The Open Source CFD Toolbox           |
|  \\    /   O peration     | Version:  2.3.1                                 |
|   \\  /    A nd           | Web:      www.OpenFOAM.org                      |
|    \\/     M anipulation  |                                                 |
\*---------------------------------------------------------------------------*/
FoamFile
{
    version     2.0;
    format      ascii;
    class       dictionary;
    location    "system";
    object      controlDict;
}
// * * * * * * * * * * * * * * * * * * * * * * * * * * * * * * * * * * * * * //

applicationClass	pimpleFoam;
startFrom        	latestTime;
endTime			0.2;
stopAt 			endTime;
deltaT			0.0005;
writeControl    	adjustableRunTime;
writeInterval		0.005;
cycleWrite      	0;
writeFormat     	ascii;
writePrecision		6;
writeCompression 	uncompressed;
timeFormat      	general;
timePrecision   	6;
runTimeModifiable	yes;
adjustTimeStep		yes;
maxCo			5;
maxDeltaT		1;

// ************************************************************************* //

functions

{

car

{

type forces;

libs ( "libforces.so" );

writeControl timeStep;

writeInterval 5;

patches (car);

rho rhoInf;

log true;

rhoInf 1;

CofR (0 0 0);

}

}
